CHEMBL2010229 CHEMBL3391775 PubChem-137007080 PubChem-362632 PubChem-498360


 52 57  0  0  0  0  0  0  0  0999 V2000
  -12.0941   -7.0183   10.0291 O   0  0  0  0  0  0  0  0  0  0  0  0
  -11.7029   -7.6342    8.9218 C   0  0  0  0  0  0  0  0  0  0  0  0
  -12.6226   -7.9141    7.8818 C   0  0  0  0  0  0  0  0  0  0  0  0
  -13.9665   -7.5088    8.0726 C   0  0  0  0  0  0  0  0  0  0  0  0
  -14.3281   -6.8638    9.2676 C   0  0  0  0  0  0  0  0  0  0  0  0
  -15.6510   -6.4720    9.4579 O   0  0  0  0  0  0  0  0  0  0  0  0
  -13.3446   -6.6235   10.2519 C   0  0  0  0  0  0  0  0  0  0  0  0
  -12.1478   -8.5744    6.7170 C   0  0  0  0  0  0  0  0  0  0  0  0
  -12.9818   -8.8838    5.6494 O   0  0  0  0  0  0  0  0  0  0  0  0
  -10.8012   -8.9341    6.6172 C   0  0  0  0  0  0  0  0  0  0  0  0
   -9.9115   -8.6513    7.6511 C   0  0  0  0  0  0  0  0  0  0  0  0
   -8.5769   -9.0148    7.5374 O   0  0  0  0  0  0  0  0  0  0  0  0
  -10.3618   -8.0034    8.7988 C   0  0  0  0  0  0  0  0  0  0  0  0
  -16.2897   -6.6401    8.7932 H   0  0  0  0  0  0  0  0  0  0  0  0
  -13.8903   -8.6569    5.6836 H   0  0  0  0  0  0  0  0  0  0  0  0
   -8.2741   -9.4507    6.7653 H   0  0  0  0  0  0  0  0  0  0  0  0
  -15.0245   -7.7560    7.0626 C   0  0  0  0  0  0  0  0  0  0  0  0
  -15.8432   -8.9120    7.0855 C   0  0  0  0  0  0  0  0  0  0  0  0
  -16.8121   -9.0456    6.0613 C   0  0  0  0  0  0  0  0  0  0  0  0
  -16.9395   -8.1207    5.1196 O   0  0  0  0  0  0  0  0  0  0  0  0
  -16.1912   -7.0226    5.0575 C   0  0  0  0  0  0  0  0  0  0  0  0
  -15.1984   -6.8096    6.0388 C   0  0  0  0  0  0  0  0  0  0  0  0
  -14.3880   -5.6772    6.0121 O   0  0  0  0  0  0  0  0  0  0  0  0
  -17.6544  -10.1588    6.0249 C   0  0  0  0  0  0  0  0  0  0  0  0
  -17.5528  -11.1517    6.9960 C   0  0  0  0  0  0  0  0  0  0  0  0
  -18.3939  -12.2549    6.9519 O   0  0  0  0  0  0  0  0  0  0  0  0
  -16.6065  -11.0372    8.0121 C   0  0  0  0  0  0  0  0  0  0  0  0
  -15.7526   -9.9326    8.0697 C   0  0  0  0  0  0  0  0  0  0  0  0
  -14.8329   -9.8784    9.1099 O   0  0  0  0  0  0  0  0  0  0  0  0
  -14.4957   -5.0398    5.3337 H   0  0  0  0  0  0  0  0  0  0  0  0
  -19.0303  -12.3317    6.2684 H   0  0  0  0  0  0  0  0  0  0  0  0
  -14.7998  -10.5689    9.7424 H   0  0  0  0  0  0  0  0  0  0  0  0
  -16.4527   -6.0751    3.9404 C   0  0  0  0  0  0  0  0  0  0  0  0
  -15.9157   -4.7778    3.9115 C   0  0  0  0  0  0  0  0  0  0  0  0
  -16.1840   -3.9135    2.8464 C   0  0  0  0  0  0  0  0  0  0  0  0
  -15.6396   -2.6354    2.8431 O   0  0  0  0  0  0  0  0  0  0  0  0
  -16.9984   -4.3394    1.7911 C   0  0  0  0  0  0  0  0  0  0  0  0
  -17.2725   -3.4898    0.7268 O   0  0  0  0  0  0  0  0  0  0  0  0
  -17.5396   -5.6265    1.8071 C   0  0  0  0  0  0  0  0  0  0  0  0
  -17.2682   -6.4868    2.8742 C   0  0  0  0  0  0  0  0  0  0  0  0
  -15.0951   -2.3563    3.5528 H   0  0  0  0  0  0  0  0  0  0  0  0
  -16.9111   -2.6253    0.7122 H   0  0  0  0  0  0  0  0  0  0  0  0
  -13.6306   -5.9437   11.5441 C   0  0  0  0  0  0  0  0  0  0  0  0
  -13.2294   -6.5588   12.7409 C   0  0  0  0  0  0  0  0  0  0  0  0
  -13.4768   -5.9543   13.9766 C   0  0  0  0  0  0  0  0  0  0  0  0
  -13.0693   -6.5850   15.1453 O   0  0  0  0  0  0  0  0  0  0  0  0
  -14.1325   -4.7190   14.0299 C   0  0  0  0  0  0  0  0  0  0  0  0
  -14.3842   -4.1083   15.2519 O   0  0  0  0  0  0  0  0  0  0  0  0
  -14.5366   -4.0956   12.8476 C   0  0  0  0  0  0  0  0  0  0  0  0
  -14.2869   -4.7040   11.6148 C   0  0  0  0  0  0  0  0  0  0  0  0
  -12.6308   -7.4119   15.1031 H   0  0  0  0  0  0  0  0  0  0  0  0
  -14.1146   -4.5234   16.0475 H   0  0  0  0  0  0  0  0  0  0  0  0
  1  2  2  0  0  0
  2  3  1  0  0  0
  3  4  2  0  0  0
  4 17  1  0  0  0
 17 18  2  0  0  0
 18 19  1  0  0  0
 19 20  2  0  0  0
 20 21  1  0  0  0
 21 22  2  0  0  0
 22 23  1  0  0  0
 21 33  1  0  0  0
 33 34  2  0  0  0
 34 35  1  0  0  0
 35 36  1  0  0  0
 35 37  2  0  0  0
 37 38  1  0  0  0
 37 39  1  0  0  0
 39 40  2  0  0  0
 19 24  1  0  0  0
 24 25  2  0  0  0
 25 26  1  0  0  0
 25 27  1  0  0  0
 27 28  2  0  0  0
 28 29  1  0  0  0
  4  5  1  0  0  0
  5  6  1  0  0  0
  5  7  2  0  0  0
  7 43  1  0  0  0
 43 44  2  0  0  0
 44 45  1  0  0  0
 45 46  1  0  0  0
 45 47  2  0  0  0
 47 48  1  0  0  0
 47 49  1  0  0  0
 49 50  2  0  0  0
  3  8  1  0  0  0
  8  9  1  0  0  0
  8 10  2  0  0  0
 10 11  1  0  0  0
 11 12  1  0  0  0
 11 13  2  0  0  0
  7  1  1  0  0  0
 50 43  1  0  0  0
 13  2  1  0  0  0
 22 17  1  0  0  0
 40 33  1  0  0  0
 28 18  1  0  0  0
 23 30  1  0  0  0
 36 41  1  0  0  0
 38 42  1  0  0  0
 26 31  1  0  0  0
 29 32  1  0  0  0
  6 14  1  0  0  0
 46 51  1  0  0  0
 48 52  1  0  0  0
  9 15  1  0  0  0
 12 16  1  0  0  0
M  CHG 1   1   1
M  CHG 1  20   1
M  END
> <minimizedAffinity>
-7.60115

> <minimizedRMSD>
0.39684

$$$$
