CHEMBL2010229 CHEMBL3391775 PubChem-137007080 PubChem-362632 PubChem-498360


 52 57  0  0  0  0  0  0  0  0999 V2000
  -12.2215   -6.8262    9.9591 O   0  0  0  0  0  0  0  0  0  0  0  0
  -11.8129   -7.5384    8.9178 C   0  0  0  0  0  0  0  0  0  0  0  0
  -12.7021   -7.8613    7.8638 C   0  0  0  0  0  0  0  0  0  0  0  0
  -14.0348   -7.3923    7.9676 C   0  0  0  0  0  0  0  0  0  0  0  0
  -14.4160   -6.6456    9.0953 C   0  0  0  0  0  0  0  0  0  0  0  0
  -15.7283   -6.1909    9.2005 O   0  0  0  0  0  0  0  0  0  0  0  0
  -13.4626   -6.3688   10.0994 C   0  0  0  0  0  0  0  0  0  0  0  0
  -12.2096   -8.6253    6.7720 C   0  0  0  0  0  0  0  0  0  0  0  0
  -13.0133   -8.9829    5.6963 O   0  0  0  0  0  0  0  0  0  0  0  0
  -10.8759   -9.0420    6.7556 C   0  0  0  0  0  0  0  0  0  0  0  0
  -10.0163   -8.7156    7.8021 C   0  0  0  0  0  0  0  0  0  0  0  0
   -8.6942   -9.1367    7.7717 O   0  0  0  0  0  0  0  0  0  0  0  0
  -10.4842   -7.9662    8.8788 C   0  0  0  0  0  0  0  0  0  0  0  0
  -16.3469   -6.3846    8.5239 H   0  0  0  0  0  0  0  0  0  0  0  0
  -13.9124   -8.7200    5.6755 H   0  0  0  0  0  0  0  0  0  0  0  0
   -8.3796   -9.6409    7.0473 H   0  0  0  0  0  0  0  0  0  0  0  0
  -15.0618   -7.6752    6.9352 C   0  0  0  0  0  0  0  0  0  0  0  0
  -15.8391   -8.8596    6.9396 C   0  0  0  0  0  0  0  0  0  0  0  0
  -16.7808   -9.0258    5.8950 C   0  0  0  0  0  0  0  0  0  0  0  0
  -16.9213   -8.1042    4.9519 O   0  0  0  0  0  0  0  0  0  0  0  0
  -16.2115   -6.9800    4.9068 C   0  0  0  0  0  0  0  0  0  0  0  0
  -15.2478   -6.7336    5.9091 C   0  0  0  0  0  0  0  0  0  0  0  0
  -14.4779   -5.5730    5.9007 O   0  0  0  0  0  0  0  0  0  0  0  0
  -17.5820  -10.1682    5.8396 C   0  0  0  0  0  0  0  0  0  0  0  0
  -17.4654  -11.1587    6.8116 C   0  0  0  0  0  0  0  0  0  0  0  0
  -18.2656  -12.2910    6.7485 O   0  0  0  0  0  0  0  0  0  0  0  0
  -16.5454  -11.0124    7.8475 C   0  0  0  0  0  0  0  0  0  0  0  0
  -15.7328   -9.8782    7.9243 C   0  0  0  0  0  0  0  0  0  0  0  0
  -14.8377   -9.7932    8.9837 O   0  0  0  0  0  0  0  0  0  0  0  0
  -14.5940   -4.9386    5.2209 H   0  0  0  0  0  0  0  0  0  0  0  0
  -18.8843  -12.3892    6.0517 H   0  0  0  0  0  0  0  0  0  0  0  0
  -14.7933  -10.4833    9.6160 H   0  0  0  0  0  0  0  0  0  0  0  0
  -16.4831   -6.0404    3.7855 C   0  0  0  0  0  0  0  0  0  0  0  0
  -15.9346   -4.7485    3.7355 C   0  0  0  0  0  0  0  0  0  0  0  0
  -16.2129   -3.8915    2.6671 C   0  0  0  0  0  0  0  0  0  0  0  0
  -15.6567   -2.6187    2.6427 O   0  0  0  0  0  0  0  0  0  0  0  0
  -17.0490   -4.3193    1.6297 C   0  0  0  0  0  0  0  0  0  0  0  0
  -17.3332   -3.4769    0.5623 O   0  0  0  0  0  0  0  0  0  0  0  0
  -17.6019   -5.6010    1.6668 C   0  0  0  0  0  0  0  0  0  0  0  0
  -17.3204   -6.4540    2.7372 C   0  0  0  0  0  0  0  0  0  0  0  0
  -15.0976   -2.3383    3.3404 H   0  0  0  0  0  0  0  0  0  0  0  0
  -16.9641   -2.6161    0.5336 H   0  0  0  0  0  0  0  0  0  0  0  0
  -13.7708   -5.5828   11.3246 C   0  0  0  0  0  0  0  0  0  0  0  0
  -13.0405   -5.8347   12.4972 C   0  0  0  0  0  0  0  0  0  0  0  0
  -13.2964   -5.1185   13.6699 C   0  0  0  0  0  0  0  0  0  0  0  0
  -12.5591   -5.3882   14.8159 O   0  0  0  0  0  0  0  0  0  0  0  0
  -14.2922   -4.1352   13.6833 C   0  0  0  0  0  0  0  0  0  0  0  0
  -14.5560   -3.4168   14.8426 O   0  0  0  0  0  0  0  0  0  0  0  0
  -15.0259   -3.8738   12.5244 C   0  0  0  0  0  0  0  0  0  0  0  0
  -14.7662   -4.5925   11.3546 C   0  0  0  0  0  0  0  0  0  0  0  0
  -11.8938   -6.0477   14.8006 H   0  0  0  0  0  0  0  0  0  0  0  0
  -14.0658   -3.5892   15.6224 H   0  0  0  0  0  0  0  0  0  0  0  0
  1  2  2  0  0  0
  2  3  1  0  0  0
  3  4  2  0  0  0
  4 17  1  0  0  0
 17 18  2  0  0  0
 18 19  1  0  0  0
 19 20  2  0  0  0
 20 21  1  0  0  0
 21 22  2  0  0  0
 22 23  1  0  0  0
 21 33  1  0  0  0
 33 34  2  0  0  0
 34 35  1  0  0  0
 35 36  1  0  0  0
 35 37  2  0  0  0
 37 38  1  0  0  0
 37 39  1  0  0  0
 39 40  2  0  0  0
 19 24  1  0  0  0
 24 25  2  0  0  0
 25 26  1  0  0  0
 25 27  1  0  0  0
 27 28  2  0  0  0
 28 29  1  0  0  0
  4  5  1  0  0  0
  5  6  1  0  0  0
  5  7  2  0  0  0
  7 43  1  0  0  0
 43 44  2  0  0  0
 44 45  1  0  0  0
 45 46  1  0  0  0
 45 47  2  0  0  0
 47 48  1  0  0  0
 47 49  1  0  0  0
 49 50  2  0  0  0
  3  8  1  0  0  0
  8  9  1  0  0  0
  8 10  2  0  0  0
 10 11  1  0  0  0
 11 12  1  0  0  0
 11 13  2  0  0  0
  7  1  1  0  0  0
 50 43  1  0  0  0
 13  2  1  0  0  0
 22 17  1  0  0  0
 40 33  1  0  0  0
 28 18  1  0  0  0
 23 30  1  0  0  0
 36 41  1  0  0  0
 38 42  1  0  0  0
 26 31  1  0  0  0
 29 32  1  0  0  0
  6 14  1  0  0  0
 46 51  1  0  0  0
 48 52  1  0  0  0
  9 15  1  0  0  0
 12 16  1  0  0  0
M  CHG 1   1   1
M  CHG 1  20   1
M  END
>  <minimizedAffinity>
-7.52176

>  <minimizedRMSD>
7.50560

$$$$
