ChemDiv-2652-0132 MCULE-8405197426 MolPort-007-555-219 PubChem-23903020 ZINC000100566832


 41 44  0  0  0  0  0  0  0  0999 V2000
   -6.9013  -13.9747    8.3727 C   0  0  0  0  0  0  0  0  0  0  0  0
   -8.2143  -13.5158    8.6473 C   0  0  0  0  0  0  0  0  0  0  0  0
   -8.5178  -13.0194    9.9251 C   0  0  0  0  0  0  0  0  0  0  0  0
   -7.5397  -12.9555   10.9177 C   0  0  0  0  0  0  0  0  0  0  0  0
   -6.2472  -13.4016   10.6493 C   0  0  0  0  0  0  0  0  0  0  0  0
   -5.9329  -13.9091    9.3880 C   0  0  0  0  0  0  0  0  0  0  0  0
   -5.1494  -14.3304    6.5832 N   0  0  0  0  0  0  0  0  0  0  0  0
   -6.4960  -14.5000    7.0458 C   0  0  0  0  0  0  0  0  0  0  0  0
   -7.3360  -15.1215    6.3398 O   0  0  0  0  0  0  0  0  0  0  0  0
   -4.5228  -13.9172    7.2203 H   0  0  0  0  0  0  0  0  0  0  0  0
   -2.9126  -15.6138    1.4694 C   0  0  0  0  0  0  0  0  0  0  0  0
   -3.4987  -15.2936    2.7975 C   0  0  0  0  0  0  0  0  0  0  0  0
   -2.6773  -15.2227    3.9232 C   0  0  0  0  0  0  0  0  0  0  0  0
   -3.2139  -14.9165    5.1828 C   0  0  0  0  0  0  0  0  0  0  0  0
   -4.6030  -14.6891    5.3059 C   0  0  0  0  0  0  0  0  0  0  0  0
   -5.4173  -14.7616    4.1654 C   0  0  0  0  0  0  0  0  0  0  0  0
   -4.8693  -15.0640    2.9184 C   0  0  0  0  0  0  0  0  0  0  0  0
   -2.3203  -14.8760    6.3667 C   0  0  0  0  0  0  0  0  0  0  0  0
   -2.5882  -15.6130    7.3556 O   0  0  0  0  0  0  0  0  0  0  0  0
   -1.1297  -13.9964    6.4308 C   0  0  0  0  0  0  0  0  0  0  0  0
    0.1542  -14.5237    6.6393 C   0  0  0  0  0  0  0  0  0  0  0  0
    1.2707  -13.6827    6.6745 C   0  0  0  0  0  0  0  0  0  0  0  0
    1.1149  -12.3065    6.4957 C   0  0  0  0  0  0  0  0  0  0  0  0
   -0.1568  -11.7716    6.2781 C   0  0  0  0  0  0  0  0  0  0  0  0
   -1.2728  -12.6128    6.2427 C   0  0  0  0  0  0  0  0  0  0  0  0
   -9.2551  -13.6328    7.6645 N   0  0  0  0  0  0  0  0  0  0  0  0
  -10.4719  -12.8740    7.6304 C   0  0  0  0  0  0  0  0  0  0  0  0
  -11.5258  -13.4428    7.2406 O   0  0  0  0  0  0  0  0  0  0  0  0
   -9.1210  -14.2949    6.9483 H   0  0  0  0  0  0  0  0  0  0  0  0
  -10.5095  -11.4383    7.9806 C   0  0  0  0  0  0  0  0  0  0  0  0
  -10.3447  -11.0181    9.3069 C   0  0  0  0  0  0  0  0  0  0  0  0
  -10.3858   -9.6576    9.6410 C   0  0  0  0  0  0  0  0  0  0  0  0
  -10.5824   -8.7119    8.6278 C   0  0  0  0  0  0  0  0  0  0  0  0
  -10.7285   -9.1113    7.2921 C   0  0  0  0  0  0  0  0  0  0  0  0
  -10.6863  -10.4756    6.9778 C   0  0  0  0  0  0  0  0  0  0  0  0
  -10.9071   -8.1361    6.2554 N   0  0  0  0  0  0  0  0  0  0  0  0
  -10.1065   -8.1594    5.1354 O   0  0  0  0  0  0  0  0  0  0  0  0
  -11.7311   -7.2083    6.3936 O   0  0  0  0  0  0  0  0  0  0  0  0
  -10.2321   -9.2378   11.0030 N   0  0  0  0  0  0  0  0  0  0  0  0
  -11.2972   -8.6975   11.6872 O   0  0  0  0  0  0  0  0  0  0  0  0
   -9.1346   -9.3635   11.5852 O   0  0  0  0  0  0  0  0  0  0  0  0
 11 12  1  0  0  0
 12 13  2  0  0  0
 13 14  1  0  0  0
 14 18  1  0  0  0
 14 15  2  0  0  0
 18 19  2  0  0  0
 18 20  1  0  0  0
 20 21  2  0  0  0
 21 22  1  0  0  0
 22 23  2  0  0  0
 23 24  1  0  0  0
 24 25  2  0  0  0
 25 20  1  0  0  0
 15  7  1  0  0  0
 15 16  1  0  0  0
  7  8  1  0  0  0
  8  9  2  0  0  0
  8  1  1  0  0  0
  1  2  1  0  0  0
  2 26  1  0  0  0
  2  3  2  0  0  0
 26 27  1  0  0  0
 27 28  2  0  0  0
 27 30  1  0  0  0
 30 31  2  0  0  0
 31 32  1  0  0  0
 32 33  2  0  0  0
 32 39  1  0  0  0
 33 34  1  0  0  0
 34 35  2  0  0  0
 34 36  1  0  0  0
 35 30  1  0  0  0
 36 37  1  0  0  0
 36 38  2  0  0  0
 39 40  1  0  0  0
 39 41  2  0  0  0
  3  4  1  0  0  0
  4  5  2  0  0  0
  5  6  1  0  0  0
  6  1  2  0  0  0
 16 17  2  0  0  0
 17 12  1  0  0  0
  7 10  1  0  0  0
 26 29  1  0  0  0
M  CHG 1  36   1
M  CHG 1  37  -1
M  CHG 1  39   1
M  CHG 1  40  -1
M  END
>  <minimizedAffinity>
-6.85839

>  <minimizedRMSD>
4.82034

$$$$
